26
 
C -8.479508399963379 3.090158700942993 -16.874177932739258
C -7.262653827667236 4.115833759307861 -16.288925170898438
C -6.864120960235596 4.884346008300781 -15.051156044006348
C -5.849114418029785 4.970508575439453 -13.687234878540039
C -4.541794776916504 5.531550407409668 -13.2232666015625
C -3.7144527435302734 6.602908611297607 -12.495213508605957
C -3.0711278915405273 7.100130081176758 -11.03903865814209
C -2.061957359313965 7.001796245574951 -10.019669532775879
C -0.7752935290336609 7.8658766746521 -9.450490951538086
C -0.26045727729797363 8.942485809326172 -7.882850646972656
C 0.18634186685085297 8.89536190032959 -6.189662456512451
C 1.7841346263885498 8.478620529174805 -4.795373916625977
C -1.1241687536239624 11.198884963989258 -2.5967533588409424
C -1.9914897680282593 8.998191833496094 -1.821142315864563
C -2.4584410190582275 8.131936073303223 -0.43647342920303345
C -3.740236282348633 7.663497447967529 0.23676589131355286
C -4.599120616912842 6.288898468017578 0.6776793003082275
C -4.875999450683594 5.169371128082275 1.7090811729431152
C -5.885054588317871 4.721458911895752 2.9157299995422363
C -7.106573104858398 3.9377994537353516 3.3080782890319824
C -7.675034523010254 2.577702760696411 3.9599409103393555
C -8.208182334899902 1.8731943368911743 5.35221529006958
C -9.337442398071289 1.6001245975494385 6.3404107093811035
C -10.444151878356934 0.6184560060501099 6.751218318939209
C -11.007792472839355 -0.6654528975486755 7.291027545928955
C -12.089607238769531 -1.6487571001052856 9.5725736618042
